/*--------------------------------*- C++ -*----------------------------------*\
| =========                 |                                                 |
| \\      /  F ield         | foam-extend: Open Source CFD                    |
|  \\    /   O peration     | Version:     4.0                                |
|   \\  /    A nd           | Web:         http://www.foam-extend.org         |
|    \\/     M anipulation  |                                                 |
\*---------------------------------------------------------------------------*/
FoamFile
{
    version     2.0;
    format      ascii;
    class       polyBoundaryMesh;
    location    "constant/polyMesh";
    object      boundary;
}
// * * * * * * * * * * * * * * * * * * * * * * * * * * * * * * * * * * * * * //

3
(
    plateFix
    {
        type            patch;
        nFaces          6;
        startFace       1094;
    }
    plate
    {
        type            patch;
        nFaces          206;
        startFace       1100;
    }
    frontAndBackPlanes
    {
        type            empty;
        nFaces          1200;
        startFace       1306;
    }
)


// ************************************************************************* //
