/*--------------------------------*- C++ -*----------------------------------*\
| =========                 |                                                 |
| \\      /  F ield         | foam-extend: Open Source CFD                    |
|  \\    /   O peration     | Version:     4.0                                |
|   \\  /    A nd           | Web:         http://www.foam-extend.org         |
|    \\/     M anipulation  |                                                 |
\*---------------------------------------------------------------------------*/
FoamFile
{
    version     2.0;
    format      ascii;
    class       dictionary;
    location    "system";
    object      controlDict;
}
// * * * * * * * * * * * * * * * * * * * * * * * * * * * * * * * * * * * * * //

OptimisationSwitches
{
    commsType       blocking;
}

application     fsiFoam;

startFrom       latestTime;

startTime       0;

stopAt          endTime;

endTime         5;

deltaT          1e-3;

writeControl    timeStep;

writeInterval   50;

purgeWrite      20;

writeFormat     ascii;

writePrecision  6;

writeCompression compressed;

timeFormat      general;

timePrecision   6;

runTimeModifiable yes;

adjustTimeStep  no;

maxCo           0.2;

functions
(
   pointHistory
   {
       type pointHistory;
       functionObjectLibs
       (
         "libpointHistory.so"
       );

        region solid;
        refHistoryPoint (0.6 0.2 0.025334);
   }

   hronTurekReport
   {
       type hronTurekReport;
       functionObjectLibs
       (
         "libhronTurekReport.so"
       );
   }
);


// ************************************************************************* //
